LTspice 24.1.0 for Windows
Circuit: C:\users\Brandon\Documents\ECE_213\lab4.net
Start Time: Thu Feb 13 09:52:10 2025
solver = Normal
Maximum thread count: 8
tnom = 27
temp = 27
method = trap
.OP point found by inspection.
Total elapsed time: 0.049 seconds.

Files loaded:
C:\users\Brandon\Documents\ECE_213\lab4.net

V2: MAX(V(V2))=2.63330960274 FROM 0.01 TO 0.1
Vs: MAX(V(Vs))=4.24547767639 FROM 0.01 TO 0.1

Measurement "V1" FAIL'ed
